/*--------------------------------*- C++ -*----------------------------------*\
| =========                 |                                                 |
| \      /  F ield         | OpenFOAM: The Open Source CFD Toolbox          |
|  \    /   O peration     | Version:  12                                   |
|   \  /    A nd           | Web:      https://openfoam.org                 |
|    \/     M anipulation  |                                                 |
\*---------------------------------------------------------------------------*/
FoamFile
{
    version     2.0;
    format      ascii;
    class       dictionary;
    object      blockMeshDict;
}

convertToMeters 1.0;

vertices
(
    (-3.5 -4.5 -5.1)
    (6.7 -4.5 -5.1)
    (6.7 0.8 -5.1)
    (-3.5 0.8 -5.1)
    (-3.5 -4.5 15)
    (6.7 -4.5 15)
    (6.7 0.8 15)
    (-3.5 0.8 15)
);

blocks
(
    hex (0 1 2 3 4 5 6 7) (102 53 201) simpleGrading (1 1 1)
);

edges
(
);

boundary
(
    walls
    {
        type wall;
        faces
        (
            (0 1 2 3)
            (4 5 6 7)
            (0 3 7 4)
            (1 2 6 5)
            (2 3 7 6)
            (0 1 5 4)
        );
    }
);

mergePatchPairs
(
);
